# created with PyMOL 2.5.0
@<TRIPOS>MOLECULE
CHEMBL3818920
36 38 1                 
SMALL
USER_CHARGES
@<TRIPOS>ATOM
1	C001	-0.639	-0.387	4.300	C.3	1	UNK0	0.000	
2	C002	-0.897	0.771	3.363	C.3	1	UNK0	0.000	
3	C003	-0.151	0.523	2.109	C.2	1	UNK0	0.000	
4	O004	0.538	-0.517	1.987	O.2	1	UNK0	0.000	
5	N005	-0.171	1.423	1.001	N.pl3	1	UNK0	0.000	
6	C006	0.550	1.173	-0.200	C.2	1	UNK0	0.000	
7	C007	-0.052	0.475	-1.235	C.2	1	UNK0	0.000	
8	C008	0.642	0.225	-2.414	C.2	1	UNK0	0.000	
9	N009	0.005	-0.494	-3.463	N.pl3	1	UNK0	0.000	
10	C010	-1.326	-0.970	-3.349	C.2	1	UNK0	0.000	
11	C011	-1.587	-2.003	-2.481	C.2	1	UNK0	0.000	
12	Cl01	-0.335	-2.748	-1.515	Cl	1	UNK0	0.000	
13	C013	-2.881	-2.502	-2.339	C.2	1	UNK0	0.000	
14	C014	-3.878	-1.924	-3.093	C.2	1	UNK0	0.000	
15	C015	-3.655	-0.886	-3.974	C.2	1	UNK0	0.000	
16	C016	-2.342	-0.412	-4.091	C.2	1	UNK0	0.000	
17	O017	-2.417	0.612	-5.029	O.3	1	UNK0	0.000	
18	C018	-3.596	0.435	-5.817	C.3	1	UNK0	0.000	
19	O019	-4.472	-0.139	-4.839	O.3	1	UNK0	0.000	
20	C020	1.936	0.669	-2.567	C.2	1	UNK0	0.000	
21	C021	2.516	1.361	-1.526	C.2	1	UNK0	0.000	
22	N022	1.815	1.584	-0.403	N.2	1	UNK0	0.000	
23	H023	-1.067	-1.296	3.784	 H	1	UNK0	0.000	
24	H024	-1.155	-0.291	5.265	 H	1	UNK0	0.000	
25	H025	0.445	-0.506	4.464	 H	1	UNK0	0.000	
26	H026	-0.617	1.740	3.823	 H	1	UNK0	0.000	
27	H027	-1.981	0.840	3.137	 H	1	UNK0	0.000	
28	H028	-0.750	2.284	1.120	 H	1	UNK0	0.000	
29	H029	-1.081	0.126	-1.105	 H	1	UNK0	0.000	
30	H030	0.509	-0.691	-4.354	 H	1	UNK0	0.000	
31	H031	-3.078	-3.310	-1.659	 H	1	UNK0	0.000	
32	H032	-4.887	-2.310	-2.985	 H	1	UNK0	0.000	
33	H033	-3.979	1.371	-6.226	 H	1	UNK0	0.000	
34	H034	-3.395	-0.352	-6.568	 H	1	UNK0	0.000	
35	H035	2.456	0.464	-3.489	 H	1	UNK0	0.000	
36	H036	3.536	1.700	-1.672	 H	1	UNK0	0.000	
@<TRIPOS>BOND
1 1 2 1
2 1 23 1
3 1 24 1
4 1 25 1
5 2 3 1
6 2 26 1
7 2 27 1
8 3 4 2
9 3 5 1
10 5 6 1
11 5 28 1
12 6 7 2
13 6 22 1
14 7 8 1
15 7 29 1
16 8 9 1
17 8 20 2
18 9 10 1
19 9 30 1
20 10 11 2
21 10 16 1
22 11 12 1
23 11 13 1
24 13 14 2
25 13 31 1
26 14 15 1
27 14 32 1
28 15 16 2
29 15 19 1
30 16 17 1
31 17 18 1
32 18 19 1
33 18 33 1
34 18 34 1
35 20 21 1
36 20 35 1
37 21 22 2
38 21 36 1
@<TRIPOS>SUBSTRUCTURE
1	UNK0	1	GROUP	1 ****	UNK
