# created with PyMOL 2.5.0
@<TRIPOS>MOLECULE
CHEMBL3819276
40 43 1                 
SMALL
USER_CHARGES
@<TRIPOS>ATOM
      1 O001         0.686    -0.560     1.771 O.2     1  UNK0         0.000
      2 C002        -0.019     0.460     1.983 C.2     1  UNK0         0.000
      3 N003        -0.124     1.411     0.934 N.pl3   1  UNK0         0.000
      4 C004         0.571     1.153    -0.288 C.2     1  UNK0         0.000
      5 C005        -0.060     0.458    -1.286 C.2     1  UNK0         0.000
      6 C006         0.622     0.206    -2.482 C.2     1  UNK0         0.000
      7 N007        -0.014    -0.512    -3.527 N.pl3   1  UNK0         0.000
      8 C008        -1.334    -0.965    -3.346 C.2     1  UNK0         0.000
      9 C009        -1.523    -2.213    -2.805 C.2     1  UNK0         0.000
     10 Cl00        -0.169    -3.230    -2.344 Cl      1  UNK0         0.000
     11 C011        -2.804    -2.667    -2.623 C.2     1  UNK0         0.000
     12 C012        -3.872    -1.860    -2.989 C.2     1  UNK0         0.000
     13 C013        -3.679    -0.605    -3.533 C.2     1  UNK0         0.000
     14 C014        -2.394    -0.141    -3.719 C.2     1  UNK0         0.000
     15 O015        -2.470     1.129    -4.273 O.3     1  UNK0         0.000
     16 C016        -3.779     1.312    -4.778 C.3     1  UNK0         0.000
     17 O017        -4.523     0.409    -3.986 O.3     1  UNK0         0.000
     18 C018         1.919     0.659    -2.642 C.2     1  UNK0         0.000
     19 C019         2.495     1.347    -1.609 C.2     1  UNK0         0.000
     20 N020         1.842     1.580    -0.482 N.2     1  UNK0         0.000
     21 C021        -0.725     0.664     3.300 C.3     1  UNK0         0.000
     22 C022        -0.441    -0.485     4.213 C.3     1  UNK0         0.000
     23 C023         0.375     0.390     5.112 C.3     1  UNK0         0.000
     24 C024         0.035     1.568     4.234 C.3     1  UNK0         0.000
     25 H025        -0.693     2.279     1.046 H       1  UNK0         0.000
     26 H026        -1.074     0.104    -1.158 H       1  UNK0         0.000
     27 H027         0.524    -0.680    -4.401 H       1  UNK0         0.000
     28 H028        -2.946    -3.645    -2.199 H       1  UNK0         0.000
     29 H029        -4.884    -2.215    -2.847 H       1  UNK0         0.000
     30 H030        -4.126     2.361    -4.655 H       1  UNK0         0.000
     31 H031        -3.822     0.977    -5.838 H       1  UNK0         0.000
     32 H032         2.454     0.460    -3.583 H       1  UNK0         0.000
     33 H033         3.511     1.698    -1.742 H       1  UNK0         0.000
     34 H034        -1.778     0.963     3.201 H       1  UNK0         0.000
     35 H035         0.133    -1.328     3.745 H       1  UNK0         0.000
     36 H036        -1.361    -0.875     4.690 H       1  UNK0         0.000
     37 H037         1.472     0.184     5.084 H       1  UNK0         0.000
     38 H038         0.030     0.470     6.156 H       1  UNK0         0.000
     39 H039         0.909     2.086     3.801 H       1  UNK0         0.000
     40 H040        -0.597     2.283     4.807 H       1  UNK0         0.000
@<TRIPOS>BOND
1 1 2 2
2 2 3 1
3 2 21 1
4 3 4 1
5 3 25 1
6 4 5 2
7 5 6 1
8 5 26 1
9 6 7 1
10 6 18 2
11 7 8 1
12 7 27 1
13 8 9 2
14 9 10 1
15 9 11 1
16 11 12 2
17 11 28 1
18 12 13 1
19 12 29 1
20 13 14 2
21 8 14 1
22 14 15 1
23 15 16 1
24 16 17 1
25 16 30 1
26 16 31 1
27 13 17 1
28 18 19 1
29 18 32 1
30 19 20 2
31 19 33 1
32 4 20 1
33 21 22 1
34 21 34 1
35 22 23 1
36 22 35 1
37 22 36 1
38 23 24 1
39 23 37 1
40 23 38 1
41 21 24 1
42 24 39 1
43 24 40 1
@<TRIPOS>SUBSTRUCTURE
1	UNK0	1	GROUP	1 ****	UNK
