@<TRIPOS>MOLECULE
121P.lig
   46    48     1     0     0
SMALL
bcc


@<TRIPOS>ATOM
      1 P1          5.1500   32.1730   22.0300 P.3       1 LIG      1.209700
      2 O1          4.7680   32.5970   23.3900 O.co2     1 LIG     -0.913500
      3 O2          4.1640   32.6830   21.0690 O.co2     1 LIG     -0.913500
      4 O3          4.8340   30.6410   22.0250 O.co2     1 LIG     -0.903500
      5 C1          6.7820   32.4060   21.6240 C.3       1 LIG     -0.693800
      6 H1          7.0160   33.4380   21.6790 H         1 LIG      0.089700
      7 H2          7.3940   31.8690   22.3010 H         1 LIG      0.090700
      8 P2          7.4190   31.9700   20.1370 P.3       1 LIG      1.569600
      9 O4          7.7190   30.5340   19.9730 O.co2     1 LIG     -0.906500
     10 O5          6.7330   32.5580   18.9710 O.co2     1 LIG     -0.929500
     11 O6          8.8990   32.5950   20.0420 O.3       1 LIG     -0.754800
     12 P3          9.3480   34.1040   19.5900 P.3       1 LIG      1.553800
     13 O7          9.2460   34.1750   18.1090 O.co2     1 LIG     -0.519500
     14 O8          8.6490   35.1210   20.4050 O.co2     1 LIG     -0.865500
     15 O9         10.8970   33.9830   20.0270 O.3       1 LIG     -0.585200
     16 C2         11.2880   33.7540   21.3840 C.3       1 LIG      0.207400
     17 H3         10.6530   34.3010   22.0310 H         1 LIG      0.035700
     18 H4         11.2110   32.7210   21.6040 H         1 LIG      0.041700
     19 C3         12.7050   34.1950   21.6050 C.3       1 LIG      0.068100
     20 H5         12.9480   34.1020   22.6320 H         1 LIG      0.059700
     21 O10        13.5630   33.3710   20.8290 O.3       1 LIG     -0.417600
     22 C4         12.9280   35.6460   21.1460 C.3       1 LIG      0.140100
     23 H6         12.0190   36.1840   21.2210 H         1 LIG      0.072700
     24 O11        13.9290   36.2500   21.9960 O.3       1 LIG     -0.626800
     25 H7         14.0790   37.1640   21.7180 H         1 LIG      0.460000
     26 C5         13.4620   35.4560   19.7130 C.3       1 LIG      0.131100
     27 H8         12.6480   35.3890   19.0390 H         1 LIG      0.047700
     28 O12        14.3140   36.5140   19.2150 O.3       1 LIG     -0.601800
     29 H9         14.5960   36.3040   18.3140 H         1 LIG      0.428000
     30 C6         14.3110   34.1900   19.9170 C.3       1 LIG      0.231800
     31 H10        15.2540   34.4200   20.3410 H         1 LIG      0.041700
     32 N1         14.5170   33.4890   18.6300 N.pl3     1 LIG     -0.208900
     33 C7         13.5760   33.0670   17.7180 C.2       1 LIG      0.256400
     34 H11        12.5290   33.2380   17.9060 H         1 LIG      0.156100
     35 N2         14.0500   32.4750   16.6680 N.2       1 LIG     -0.782000
     36 C8         15.4310   32.4650   16.9160 C.2       1 LIG      0.223800
     37 C9         16.4530   31.8610   16.2010 C.2       1 LIG      0.619000
     38 O13        16.3930   31.2710   15.1300 O.2       1 LIG     -0.731500
     39 N3         17.6660   32.0060   16.8260 N.am      1 LIG     -0.479400
     40 H12        18.4720   31.5040   16.4850 H         1 LIG      0.303500
     41 C10        17.9220   32.7860   17.9060 C.2       1 LIG      0.491800
     42 N4         19.2090   32.8640   18.2750 N.3       1 LIG     -0.860800
     43 H13        19.9260   32.4590   17.6920 H         1 LIG      0.358800
     44 H14        19.4600   33.3280   19.1350 H         1 LIG      0.370800
     45 N5         16.9470   33.3030   18.6380 N.2       1 LIG     -0.552100
     46 C11        15.7310   33.0750   18.1020 C.2       1 LIG     -0.012200
@<TRIPOS>BOND
     1    1    2 1   
     2    1    3 1   
     3    1    4 1   
     4    1    5 1   
     5    5    6 1   
     6    5    7 1   
     7    5    8 1   
     8    8    9 1   
     9    8   10 1   
    10    8   11 1   
    11   11   12 1   
    12   12   13 1   
    13   12   14 1   
    14   12   15 1   
    15   15   16 1   
    16   16   17 1   
    17   16   18 1   
    18   16   19 1   
    19   19   20 1   
    20   19   21 1   
    21   19   22 1   
    22   21   30 1   
    23   22   23 1   
    24   22   24 1   
    25   22   26 1   
    26   24   25 1   
    27   26   27 1   
    28   26   28 1   
    29   26   30 1   
    30   28   29 1   
    31   30   31 1   
    32   30   32 1   
    33   32   33 ar  
    34   32   46 ar  
    35   33   34 1   
    36   33   35 ar  
    37   35   36 ar  
    38   36   37 1   
    39   36   46 ar  
    40   37   38 2   
    41   37   39 am  
    42   39   40 1   
    43   39   41 1   
    44   41   42 1   
    45   41   45 2   
    46   42   43 1   
    47   42   44 1   
    48   45   46 1   
@<TRIPOS>SUBSTRUCTURE
     1 LIG         1 TEMP              0 ****  ****    0 ROOT
