
     RDKit          3D

 39 41  0  0  0  0  0  0  0  0999 V2000
   -0.0672    1.8137    3.9974 C   0  0  0  0  0  0  0  0  0  0  0  0
   -0.5779    0.5045    3.4023 C   0  0  0  0  0  0  0  0  0  0  0  0
   -0.1761   -0.5922    4.3303 C   0  0  0  0  0  0  0  0  0  0  0  0
    0.0844    0.3573    2.0841 C   0  0  0  0  0  0  0  0  0  0  0  0
    0.8053   -0.6516    1.8931 O   0  0  0  0  0  0  0  0  0  0  0  0
   -0.0482    1.2905    1.0233 N   0  0  0  0  0  0  0  0  0  0  0  0
    0.6182    1.0982   -0.2382 C   0  0  0  0  0  0  0  0  0  0  0  0
    0.0116    0.4107   -1.2664 C   0  0  0  0  0  0  0  0  0  0  0  0
    0.6499    0.2252   -2.4782 C   0  0  0  0  0  0  0  0  0  0  0  0
   -0.0224   -0.4905   -3.5011 N   0  0  0  0  0  0  0  0  0  0  0  0
   -1.3350   -1.0109   -3.2845 C   0  0  0  0  0  0  0  0  0  0  0  0
   -2.4379   -0.2327   -3.5877 C   0  0  0  0  0  0  0  0  0  0  0  0
   -2.1556    1.3660   -4.2277 Cl  0  0  0  0  0  0  0  0  0  0  0  0
   -3.7369   -0.6993   -3.3927 C   0  0  0  0  0  0  0  0  0  0  0  0
   -3.9446   -1.9645   -2.8863 C   0  0  0  0  0  0  0  0  0  0  0  0
   -2.8365   -2.7304   -2.5881 C   0  0  0  0  0  0  0  0  0  0  0  0
   -1.5402   -2.2784   -2.7772 C   0  0  0  0  0  0  0  0  0  0  0  0
   -0.6327   -3.2604   -2.3914 O   0  0  0  0  0  0  0  0  0  0  0  0
   -1.3890   -4.1193   -1.5264 C   0  0  0  0  0  0  0  0  0  0  0  0
   -2.7101   -4.0153   -2.0760 O   0  0  0  0  0  0  0  0  0  0  0  0
    1.9173    0.7308   -2.6788 C   0  0  0  0  0  0  0  0  0  0  0  0
    2.4931    1.4130   -1.6280 C   0  0  0  0  0  0  0  0  0  0  0  0
    1.8536    1.5818   -0.4572 N   0  0  0  0  0  0  0  0  0  0  0  0
    0.9565    1.9762    3.6367 H   0  0  0  0  0  0  0  0  0  0  0  0
   -0.1416    1.7938    5.1035 H   0  0  0  0  0  0  0  0  0  0  0  0
   -0.6932    2.6168    3.5459 H   0  0  0  0  0  0  0  0  0  0  0  0
   -1.6751    0.6042    3.2834 H   0  0  0  0  0  0  0  0  0  0  0  0
    0.9129   -0.7604    4.2155 H   0  0  0  0  0  0  0  0  0  0  0  0
   -0.3519   -0.2251    5.3749 H   0  0  0  0  0  0  0  0  0  0  0  0
   -0.7259   -1.5325    4.1358 H   0  0  0  0  0  0  0  0  0  0  0  0
   -0.6334    2.1276    1.1518 H   0  0  0  0  0  0  0  0  0  0  0  0
   -0.9871    0.0248   -1.0768 H   0  0  0  0  0  0  0  0  0  0  0  0
    0.4746   -0.6207   -4.4089 H   0  0  0  0  0  0  0  0  0  0  0  0
   -4.5989   -0.0883   -3.6307 H   0  0  0  0  0  0  0  0  0  0  0  0
   -4.9574   -2.3041   -2.7439 H   0  0  0  0  0  0  0  0  0  0  0  0
   -1.0164   -5.1417   -1.5238 H   0  0  0  0  0  0  0  0  0  0  0  0
   -1.4571   -3.7218   -0.5052 H   0  0  0  0  0  0  0  0  0  0  0  0
    2.4258    0.5905   -3.6251 H   0  0  0  0  0  0  0  0  0  0  0  0
    3.5041    1.8166   -1.7873 H   0  0  0  0  0  0  0  0  0  0  0  0
  1  2  1  0
  2  3  1  0
  2  4  1  0
  4  5  2  0
  4  6  1  0
  6  7  1  0
  7  8  2  0
  8  9  1  0
  9 10  1  0
 10 11  1  0
 11 12  2  0
 12 13  1  0
 12 14  1  0
 14 15  2  0
 15 16  1  0
 16 17  2  0
 17 18  1  0
 18 19  1  0
 19 20  1  0
  9 21  2  0
 21 22  1  0
 22 23  2  0
 23  7  1  0
 17 11  1  0
 20 16  1  0
  1 24  1  0
  1 25  1  0
  1 26  1  0
  2 27  1  0
  3 28  1  0
  3 29  1  0
  3 30  1  0
  6 31  1  0
  8 32  1  0
 10 33  1  0
 14 34  1  0
 15 35  1  0
 19 36  1  0
 19 37  1  0
 21 38  1  0
 22 39  1  0
M  END
