*****
     RDKit          3D

 39 41  0  0  0  0  0  0  0  0999 V2000
    0.8210   -4.2553    0.1371 Cl  0  0  0  0  0  0  0  0  0  0  0  0
   -1.5048    2.0064    0.9479 C   0  0  0  0  0  0  0  0  0  0  0  0
   -0.2877    1.1888    0.9720 N   0  0  0  0  0  0  0  0  0  0  0  0
    0.1740    0.5796    2.1948 C   0  0  0  0  0  0  0  0  0  0  0  0
    0.6546   -0.7396    2.1941 C   0  0  0  0  0  0  0  0  0  0  0  0
    1.1058   -1.3218    3.3792 C   0  0  0  0  0  0  0  0  0  0  0  0
    1.0790   -0.5775    4.5595 C   0  0  0  0  0  0  0  0  0  0  0  0
    0.6199    0.7019    4.5473 N   0  0  0  0  0  0  0  0  0  0  0  0
    0.1723    1.2912    3.4062 C   0  0  0  0  0  0  0  0  0  0  0  0
    0.4641    1.0073   -0.2414 C   0  0  0  0  0  0  0  0  0  0  0  0
    1.8297    1.3184   -0.2764 C   0  0  0  0  0  0  0  0  0  0  0  0
    2.5520    1.1129   -1.4525 C   0  0  0  0  0  0  0  0  0  0  0  0
    1.9408    0.5817   -2.5439 N   0  0  0  0  0  0  0  0  0  0  0  0
    0.6238    0.2388   -2.5376 C   0  0  0  0  0  0  0  0  0  0  0  0
    0.0508   -0.3555   -3.7132 N   0  0  0  0  0  0  0  0  0  0  0  0
   -1.0855   -1.2358   -3.7082 C   0  0  0  0  0  0  0  0  0  0  0  0
   -1.8735   -1.2138   -4.6916 O   0  0  0  0  0  0  0  0  0  0  0  0
   -1.3341   -2.1925   -2.6019 C   0  0  0  0  0  0  0  0  0  0  0  0
   -2.6487   -2.5783   -2.2864 C   0  0  0  0  0  0  0  0  0  0  0  0
   -2.8923   -3.4596   -1.2288 C   0  0  0  0  0  0  0  0  0  0  0  0
   -1.8283   -3.9702   -0.4817 C   0  0  0  0  0  0  0  0  0  0  0  0
   -0.5155   -3.6086   -0.7972 C   0  0  0  0  0  0  0  0  0  0  0  0
   -0.2673   -2.7310   -1.8583 C   0  0  0  0  0  0  0  0  0  0  0  0
   -0.1461    0.4790   -1.3867 C   0  0  0  0  0  0  0  0  0  0  0  0
   -2.2330    1.5917    0.2213 H   0  0  0  0  0  0  0  0  0  0  0  0
   -2.0026    2.0242    1.9400 H   0  0  0  0  0  0  0  0  0  0  0  0
   -1.2496    3.0467    0.6555 H   0  0  0  0  0  0  0  0  0  0  0  0
    0.6689   -1.3176    1.2788 H   0  0  0  0  0  0  0  0  0  0  0  0
    1.4717   -2.3405    3.3829 H   0  0  0  0  0  0  0  0  0  0  0  0
    1.4264   -1.0158    5.4855 H   0  0  0  0  0  0  0  0  0  0  0  0
   -0.1659    2.3181    3.4411 H   0  0  0  0  0  0  0  0  0  0  0  0
    2.3240    1.7268    0.5961 H   0  0  0  0  0  0  0  0  0  0  0  0
    3.6031    1.3650   -1.4944 H   0  0  0  0  0  0  0  0  0  0  0  0
    0.4742   -0.1126   -4.6370 H   0  0  0  0  0  0  0  0  0  0  0  0
   -3.4878   -2.1831   -2.8456 H   0  0  0  0  0  0  0  0  0  0  0  0
   -3.9080   -3.7436   -0.9855 H   0  0  0  0  0  0  0  0  0  0  0  0
   -2.0247   -4.6490    0.3385 H   0  0  0  0  0  0  0  0  0  0  0  0
    0.7563   -2.4758   -2.1017 H   0  0  0  0  0  0  0  0  0  0  0  0
   -1.1988    0.2337   -1.3715 H   0  0  0  0  0  0  0  0  0  0  0  0
  2  3  1  0
  2 25  1  0
  2 26  1  0
  2 27  1  0
  3  4  1  0
  3 10  1  0
  4  5  2  0
  5  6  1  0
  5 28  1  0
  6  7  2  0
  6 29  1  0
  7  8  1  0
  7 30  1  0
  8  9  2  0
  4  9  1  0
  9 31  1  0
 10 11  2  0
 11 12  1  0
 11 32  1  0
 12 13  2  0
 12 33  1  0
 13 14  1  0
 14 15  1  0
 14 24  2  0
 15 16  1  0
 15 34  1  0
 16 17  2  0
 16 18  1  0
 18 19  2  0
 19 20  1  0
 19 35  1  0
 20 21  2  0
 20 36  1  0
 21 22  1  0
 21 37  1  0
  1 22  1  0
 22 23  2  0
 18 23  1  0
 23 38  1  0
 10 24  1  0
 24 39  1  0
M  END
