@<TRIPOS>MOLECULE
*****
 39 41 0 0 0
SMALL
GASTEIGER

@<TRIPOS>ATOM
      1 C1          -1.5048    2.0064    0.9479 C.3     1  UNL1        0.0058
      2 N2          -0.2877    1.1888    0.9720 N.pl3   1  UNL1       -0.3019
      3 C3           0.1740    0.5796    2.1948 C.ar    1  UNL1        0.0520
      4 C4           0.6546   -0.7396    2.1941 C.ar    1  UNL1       -0.0374
      5 C5           1.1058   -1.3218    3.3792 C.ar    1  UNL1       -0.0418
      6 C6           1.0790   -0.5775    4.5595 C.ar    1  UNL1        0.0277
      7 N7           0.6199    0.7019    4.5473 N.ar    1  UNL1       -0.2614
      8 C8           0.1723    1.2912    3.4062 C.ar    1  UNL1        0.0489
      9 C9           0.4641    1.0073   -0.2414 C.ar    1  UNL1        0.0384
     10 C10          1.8297    1.3184   -0.2764 C.ar    1  UNL1       -0.0221
     11 C11          2.5520    1.1129   -1.4525 C.ar    1  UNL1        0.0315
     12 N12          1.9408    0.5817   -2.5439 N.ar    1  UNL1       -0.2400
     13 C13          0.6238    0.2388   -2.5376 C.ar    1  UNL1        0.1269
     14 N14          0.0508   -0.3555   -3.7132 N.am    1  UNL1       -0.2663
     15 C15         -1.0855   -1.2358   -3.7082 C.2     1  UNL1        0.2494
     16 O16         -1.8735   -1.2138   -4.6916 O.2     1  UNL1       -0.2698
     17 C17         -1.3341   -2.1925   -2.6019 C.ar    1  UNL1        0.0384
     18 C18         -2.6487   -2.5783   -2.2864 C.ar    1  UNL1       -0.0495
     19 C19         -2.8923   -3.4596   -1.2288 C.ar    1  UNL1       -0.0597
     20 C20         -1.8283   -3.9702   -0.4817 C.ar    1  UNL1       -0.0433
     21 C21         -0.5155   -3.6086   -0.7972 C.ar    1  UNL1        0.0417
     22 CL2          0.8210   -4.2553    0.1371 Cl      1  UNL1       -0.0835
     23 C23         -0.2673   -2.7310   -1.8583 C.ar    1  UNL1       -0.0313
     24 C24         -0.1461    0.4790   -1.3867 C.ar    1  UNL1       -0.0001
     25 H25         -2.2330    1.5917    0.2213 H       1  UNL1        0.0432
     26 H26         -2.0026    2.0242    1.9400 H       1  UNL1        0.0432
     27 H27         -1.2496    3.0467    0.6555 H       1  UNL1        0.0432
     28 H28          0.6689   -1.3176    1.2788 H       1  UNL1        0.0637
     29 H29          1.4717   -2.3405    3.3829 H       1  UNL1        0.0633
     30 H30          1.4264   -1.0158    5.4855 H       1  UNL1        0.0829
     31 H31         -0.1659    2.3181    3.4411 H       1  UNL1        0.0848
     32 H32          2.3240    1.7268    0.5961 H       1  UNL1        0.0651
     33 H33          3.6031    1.3650   -1.4944 H       1  UNL1        0.0831
     34 H34          0.4742   -0.1126   -4.6370 H       1  UNL1        0.1566
     35 H35         -3.4878   -2.1831   -2.8456 H       1  UNL1        0.0625
     36 H36         -3.9080   -3.7436   -0.9855 H       1  UNL1        0.0618
     37 H37         -2.0247   -4.6490    0.3385 H       1  UNL1        0.0632
     38 H38          0.7563   -2.4758   -2.1017 H       1  UNL1        0.0640
     39 H39         -1.1988    0.2337   -1.3715 H       1  UNL1        0.0671
@<TRIPOS>BOND
     1     1     2    1
     2     2     3    1
     3     3     4   ar
     4     4     5   ar
     5     5     6   ar
     6     6     7   ar
     7     7     8   ar
     8     2     9    1
     9     9    10   ar
    10    10    11   ar
    11    11    12   ar
    12    12    13   ar
    13    13    14    1
    14    14    15   am
    15    15    16    2
    16    15    17    1
    17    17    18   ar
    18    18    19   ar
    19    19    20   ar
    20    20    21   ar
    21    21    22    1
    22    21    23   ar
    23    13    24   ar
    24     8     3   ar
    25    24     9   ar
    26    23    17   ar
    27     1    25    1
    28     1    26    1
    29     1    27    1
    30     4    28    1
    31     5    29    1
    32     6    30    1
    33     8    31    1
    34    10    32    1
    35    11    33    1
    36    14    34    1
    37    18    35    1
    38    19    36    1
    39    20    37    1
    40    23    38    1
    41    24    39    1
