# created with PyMOL 2.5.0
@<TRIPOS>MOLECULE
CHEMBL3818832
39 41 1                 
SMALL
USER_CHARGES
@<TRIPOS>ATOM
1	C001	-0.067	1.814	3.997	C.3	1	UNK0	0.000	
2	C002	-0.578	0.504	3.402	C.3	1	UNK0	0.000	
3	C003	-0.176	-0.592	4.330	C.3	1	UNK0	0.000	
4	C004	0.084	0.357	2.084	C.2	1	UNK0	0.000	
5	O005	0.805	-0.652	1.893	O.2	1	UNK0	0.000	
6	N006	-0.048	1.291	1.023	N.pl3	1	UNK0	0.000	
7	C007	0.618	1.098	-0.238	C.2	1	UNK0	0.000	
8	C008	0.012	0.411	-1.266	C.2	1	UNK0	0.000	
9	C009	0.650	0.225	-2.478	C.2	1	UNK0	0.000	
10	N010	-0.022	-0.491	-3.501	N.pl3	1	UNK0	0.000	
11	C011	-1.335	-1.011	-3.284	C.2	1	UNK0	0.000	
12	C012	-1.524	-2.035	-2.372	C.2	1	UNK0	0.000	
13	Cl01	-0.122	-2.642	-1.528	Cl	1	UNK0	0.000	
14	C014	-2.786	-2.572	-2.128	C.2	1	UNK0	0.000	
15	C015	-3.884	-2.083	-2.803	C.2	1	UNK0	0.000	
16	C016	-3.682	-1.061	-3.709	C.2	1	UNK0	0.000	
17	C017	-2.432	-0.519	-3.961	C.2	1	UNK0	0.000	
18	O018	-2.535	0.489	-4.915	O.3	1	UNK0	0.000	
19	C019	-3.778	0.221	-5.579	C.3	1	UNK0	0.000	
20	O020	-4.561	-0.366	-4.530	O.3	1	UNK0	0.000	
21	C021	1.917	0.731	-2.679	C.2	1	UNK0	0.000	
22	C022	2.493	1.413	-1.628	C.2	1	UNK0	0.000	
23	N023	1.854	1.582	-0.457	N.2	1	UNK0	0.000	
24	H024	0.956	1.976	3.637	 H	1	UNK0	0.000	
25	H025	-0.142	1.794	5.103	 H	1	UNK0	0.000	
26	H026	-0.693	2.617	3.546	 H	1	UNK0	0.000	
27	H027	-1.675	0.604	3.283	 H	1	UNK0	0.000	
28	H028	0.913	-0.760	4.215	 H	1	UNK0	0.000	
29	H029	-0.352	-0.225	5.375	 H	1	UNK0	0.000	
30	H030	-0.726	-1.533	4.136	 H	1	UNK0	0.000	
31	H031	-0.633	2.128	1.152	 H	1	UNK0	0.000	
32	H032	-0.987	0.025	-1.077	 H	1	UNK0	0.000	
33	H033	0.475	-0.621	-4.409	 H	1	UNK0	0.000	
34	H034	-2.931	-3.374	-1.415	 H	1	UNK0	0.000	
35	H035	-4.850	-2.513	-2.599	 H	1	UNK0	0.000	
36	H036	-4.234	1.121	-5.988	 H	1	UNK0	0.000	
37	H037	-3.677	-0.555	-6.349	 H	1	UNK0	0.000	
38	H038	2.426	0.590	-3.625	 H	1	UNK0	0.000	
39	H039	3.504	1.817	-1.787	 H	1	UNK0	0.000	
@<TRIPOS>BOND
1 1 2 1
2 1 24 1
3 1 25 1
4 1 26 1
5 2 3 1
6 2 4 1
7 2 27 1
8 3 28 1
9 3 29 1
10 3 30 1
11 4 5 2
12 4 6 1
13 6 7 1
14 6 31 1
15 7 8 2
16 7 23 1
17 8 9 1
18 8 32 1
19 9 10 1
20 9 21 2
21 10 11 1
22 10 33 1
23 11 12 2
24 11 17 1
25 12 13 1
26 12 14 1
27 14 15 2
28 14 34 1
29 15 16 1
30 15 35 1
31 16 17 2
32 16 20 1
33 17 18 1
34 18 19 1
35 19 20 1
36 19 36 1
37 19 37 1
38 21 22 1
39 21 38 1
40 22 23 2
41 22 39 1
@<TRIPOS>SUBSTRUCTURE
1	UNK0	1	GROUP	1 ****	UNK
